/*--------------------------------*- C++ -*----------------------------------*\
| =========                 |                                                 |
| \\      /  F ield         | OpenFOAM: The Open Source CFD Toolbox           |
|  \\    /   O peration     | Version:  2.3.x                                 |
|   \\  /    A nd           | Web:      www.OpenFOAM.org                      |
|    \\/     M anipulation  |                                                 |
|*---------------------------------------------------------------------------*|
|  File created by CFD support s.r.o., Mon Aug 17 06:22:22 2015               |
|                    http://www.cdfsupport.com                                |
\*---------------------------------------------------------------------------*/
FoamFile
{
    version     2.3;
    format      ascii;
    class       dictionary;
    location    "system";
    object      fvSolution.pimpleFoam;
}
// * * * * * * * * * * * * * * * * * * * * * * * * * * * * * * * * * * * * * //

solvers
{
    p
    {
        solver          GAMG;
        tolerance       1e-7;
        relTol          0.01;
        smoother        GaussSeidel;
        nPreSweeps      0;
        nPostSweeps     2;
        cacheAgglomeration true;
        nCellsInCoarsestLevel 10;
        agglomerator    faceAreaPair;
        mergeLevels     1;
    }

    Phi
    {
        $p;
    }

    pFinal
    {
        $p;
        tolerance       1e-06;
        relTol          0;
    }

    pcorr
    {
        $p;
        tolerance       1e-6;
        relTol          0;
    }
    
    Phi
    {
        $p;
    }
    
    "(k|omega|epsilon|nuTilda|U|R|v2|f|kt|kl)"    
    {
        solver          smoothSolver;
        smoother        GaussSeidel;
//         smoother        symGaussSeidel;
        nSweeps         1;
        tolerance       1e-8;
        relTol          0.01;
	maxIter	         1000;
    }
    "(k|omega|epsilon|nuTilda|U|R|v2|f|kt|kl)Final"
    {
        solver          smoothSolver;
        smoother        symGaussSeidel;
        tolerance       1e-6;
        relTol          0;
    }

}

potentialFlow
{
    nNonOrthogonalCorrectors 10;
	PhiRefCell 0;
	PhiRefValue 0;
}

PIMPLE
{
    correctPhi          no;
    nOuterCorrectors    1;
    nCorrectors         2;
    nNonOrthogonalCorrectors 0;
    pRefCell        0;
    pRefValue       0;

}

relaxationFactors
{
    "(k|omega|epsilon|nuTilda|U|R|v2|f|kt|kl)"   1;
}

cache
{
    grad(U);
}

// ************************************************************************* //
