/*--------------------------------*- C++ -*----------------------------------*\
| =========                 |                                                 |
| \\      /  F ield         | OpenFOAM: The Open Source CFD Toolbox           |
|  \\    /   O peration     | Version:  2.3.x                                 |
|   \\  /    A nd           | Web:      www.OpenFOAM.org                      |
|    \\/     M anipulation  |                                                 |
|*---------------------------------------------------------------------------*|
|  File created by CFD support s.r.o., Mon Aug 17 06:22:22 2015               |
|                    http://www.cdfsupport.com                                |
\*---------------------------------------------------------------------------*/
FoamFile
{
    version     2.3;
    format      ascii;
    class       dictionary;
    location    "system";
    object      refineMeshDict;
}
// * * * * * * * * * * * * * * * * * * * * * * * * * * * * * * * * * * * * * //

set c1;

// Type of coordinate system:
// - global : coordinate system same for every cell. Usually aligned with
//   x,y,z axis. Specify in globalCoeffs section below.
// - patchLocal : coordinate system different for every cell. Specify in
//   patchLocalCoeffs section below.
coordinateSystem patchLocal;
//coordinateSystem patchLocal;

// .. and its coefficients. x,y in this case. (normal direction is calculated
// as tan1^tan2)
// globalCoeffs
// {
//     tan1 (1 0 0);
//  //   tan2 (0 1 0);
// }

patchLocalCoeffs
{
    patch solidWall;  // Normal direction is facenormal of zero'th face of patch
    tan1 (1 0 0);
}

//List of directions to refine
directions
(
   tan1
  //  tan2
  //  normal
);

// Whether to use hex topology. This will
// - if patchLocal: all cells on selected patch should be hex
// - split all hexes in 2x2x2 through the middle of edges.
useHexTopology  no;

// Cut purely geometric (will cut hexes through vertices) or take topology
// into account. Incompatible with useHexTopology
geometricCut    false;

// Write meshes from intermediate steps
writeMesh       false;

// ************************************************************************* //
