/*--------------------------------*- C++ -*----------------------------------*\
| =========                 |                                                 |
| \\      /  F ield         | OpenFOAM: The Open Source CFD Toolbox           |
|  \\    /   O peration     | Version:  2.3.x                                 |
|   \\  /    A nd           | Web:      www.OpenFOAM.org                      |
|    \\/     M anipulation  |                                                 |
|*---------------------------------------------------------------------------*|
|  File created by CFD support s.r.o., Mon Aug 17 06:22:22 2015               |
|                    http://www.cdfsupport.com                                |
\*---------------------------------------------------------------------------*/
FoamFile
{
    version     2.3;
    format      ascii;
    class       volScalarField;
    location    "0.org";
    object      omega;
}
// * * * * * * * * * * * * * * * * * * * * * * * * * * * * * * * * * * * * * //

dimensions      [0 0 -1 0 0 0 0];

internalField   uniform 61.24;

boundaryField
{
    inlet
    {
        type            fixedValue;
        value           uniform 61.24;
    }
    outlet
    {
        type            zeroGradient;
    }
    solidWall
    {
        type            omegaWallFunction;
        value           uniform 61.24;
        Cmu             0.09;
        kappa           0.41;
        E               9.8;
        beta1           0.075;
    }
    frontAndBack
    {
        type            omegaWallFunction;
        value           uniform 61.24;
        Cmu             0.09;
        kappa           0.41;
        E               9.8;
        beta1           0.075;
    }
}


// ************************************************************************* //
